
 OpenBabel10292516003D

 20 19  0  0  0  0  0  0  0  0999 V2000
   -8.3960   11.8000  -20.1670 C   0  0  0  0  0  0  0  0  0  0  0  0
   -7.9310   11.4710  -21.4740 O   0  0  0  0  0  0  0  0  0  0  0  0
   -7.4240   12.7580  -19.5260 C   0  0  0  0  0  0  0  0  0  0  0  0
   -6.2740   12.3010  -19.0750 F   0  0  0  0  0  0  0  0  0  0  0  0
   -7.7430   14.0500  -19.4360 C   0  0  0  0  0  0  0  0  0  0  0  0
   -9.0610   14.5310  -19.9720 C   0  0  0  0  0  0  0  0  0  0  0  0
   -6.7940   15.0470  -18.8090 C   0  0  0  0  0  0  0  0  0  0  0  0
   -6.5560   14.7410  -17.3350 C   0  0  0  0  0  0  0  0  0  0  0  0
   -7.6290   15.3520  -16.4650 C   0  0  0  0  0  0  0  0  0  0  0  0
   -8.4600   14.5770  -15.7540 C   0  0  0  0  0  0  0  0  0  0  0  0
   -9.5130   15.2070  -14.8920 C   0  0  0  0  0  0  0  0  0  0  0  0
   -8.3420   13.0820  -15.8200 C   0  0  0  0  0  0  0  0  0  0  0  0
   -9.0030   11.1540  -22.6290 P   0  0  2  0  0  0  0  0  0  0  0  0
   -8.4580   10.0870  -23.5490 O   0  0  0  0  0  0  0  0  0  0  0  0
   -9.2980   12.4230  -23.3920 O   0  0  0  0  0  0  0  0  0  0  0  0
  -10.3460   10.6240  -21.9150 O   0  0  0  0  0  0  0  0  0  0  0  0
  -11.4740    9.8160  -22.7280 P   0  0  0  0  0  0  0  0  0  0  0  0
  -10.8540    8.5640  -23.3020 O   0  0  0  0  0  0  0  0  0  0  0  0
  -12.5840    9.4520  -21.7710 O   0  0  0  0  0  0  0  0  0  0  0  0
  -12.0040   10.6940  -23.8380 O   0  0  0  0  0  0  0  0  0  0  0  0
  1  3  1  0  0  0  0
  2  1  1  0  0  0  0
  3  5  2  0  0  0  0
  3  4  1  0  0  0  0
  5  7  1  0  0  0  0
  6  5  1  0  0  0  0
  7  8  1  0  0  0  0
  8  9  1  0  0  0  0
  9 10  2  0  0  0  0
 10 11  1  0  0  0  0
 12 10  1  0  0  0  0
 13 14  2  6  0  0  0
 13 16  1  0  0  0  0
 13  2  1  0  0  0  0
 15 13  1  0  0  0  0
 17 16  1  0  0  0  0
 17 19  1  0  0  0  0
 18 17  1  0  0  0  0
 20 17  2  0  0  0  0
M  END
$$$$